Circuit: * C:\Users\naushad\Downloads\drive-download-20230507T220825Z-001\PNOMS\nmosNF.asc

Limiting rise time of source v1 to 0.001
Limiting fall time of source v1 to 0.001
Limiting rise time of source v3 to 0.001
Limiting fall time of source v3 to 0.001
Limiting rise time of source v4 to 0.001
Limiting fall time of source v4 to 0.001
Limiting rise time of source v5 to 0.001
Limiting fall time of source v5 to 0.001
Limiting rise time of source v6 to 0.001
Limiting fall time of source v6 to 0.001
Limiting rise time of source v7 to 0.001
Limiting fall time of source v7 to 0.001
Limiting rise time of source v13 to 0.001
Limiting fall time of source v13 to 0.001
Direct Newton iteration for .op point succeeded.

Date: Sun May  7 22:37:55 2023
Total elapsed time: 0.121 seconds.

tnom = 27
temp = 27
method = modified trap
totiter = 2334
traniter = 2321
tranpoints = 1141
accept = 1118
rejected = 23
matrix size = 32
fillins = 0
solver = Normal
Avg thread counts: 1.1/2.9/1.3/1.1
Matrix Compiler1: 1014 bytes object code size  0.3/0.2/[0.2]
Matrix Compiler2: 2.13 KB object code size  0.3/0.4/[0.3]

