Circuit: * C:\Users\naushad\Music\nmos.asc

Limiting rise time of source v1 to 0.001
Limiting fall time of source v1 to 0.001
Limiting rise time of source v7 to 0.001
Limiting fall time of source v7 to 0.001
Limiting rise time of source v8 to 0.001
Limiting fall time of source v8 to 0.001
Limiting rise time of source v9 to 0.001
Limiting fall time of source v9 to 0.001
Limiting rise time of source v10 to 0.001
Limiting fall time of source v10 to 0.001
Limiting rise time of source v12 to 0.001
Limiting fall time of source v12 to 0.001
Limiting rise time of source v13 to 0.001
Limiting fall time of source v13 to 0.001
Direct Newton iteration for .op point succeeded.

Date: Mon May  8 10:37:40 2023
Total elapsed time: 0.092 seconds.

tnom = 27
temp = 27
method = modified trap
totiter = 2287
traniter = 2280
tranpoints = 1141
accept = 1118
rejected = 23
matrix size = 23
fillins = 0
solver = Normal
Avg thread counts: 1.1/1.3/1.3/1.1
Matrix Compiler1: 762 bytes object code size  0.2/0.2/[0.2]
Matrix Compiler2: off  [0.2]/0.3/0.2

