Circuit: * C:\users\syed\My Documents\MRL\MRL.asc

Limiting rise time of source v10 to 0.001
Limiting fall time of source v10 to 0.001
Limiting rise time of source v9 to 0.001
Limiting fall time of source v9 to 0.001
Limiting rise time of source v8 to 0.001
Limiting fall time of source v8 to 0.001
Limiting rise time of source v7 to 0.001
Limiting fall time of source v7 to 0.001
Limiting rise time of source v6 to 0.001
Limiting fall time of source v6 to 0.001
Limiting rise time of source v4 to 0.001
Limiting fall time of source v4 to 0.001
Limiting rise time of source v1 to 0.001
Limiting fall time of source v1 to 0.001
WARNING: Less than two connections to node U1:FLUX.  This node is used by E:U1:FLUX.
WARNING: Less than two connections to node U1:CHARGE.  This node is used by E:U1:CHARGE.
WARNING: Less than two connections to node U2:FLUX.  This node is used by E:U2:FLUX.
WARNING: Less than two connections to node U2:CHARGE.  This node is used by E:U2:CHARGE.
WARNING: Less than two connections to node U3:FLUX.  This node is used by E:U3:FLUX.
WARNING: Less than two connections to node U3:CHARGE.  This node is used by E:U3:CHARGE.
WARNING: Less than two connections to node U4:FLUX.  This node is used by E:U4:FLUX.
WARNING: Less than two connections to node U4:CHARGE.  This node is used by E:U4:CHARGE.
WARNING: Less than two connections to node U5:FLUX.  This node is used by E:U5:FLUX.
WARNING: Less than two connections to node U5:CHARGE.  This node is used by E:U5:CHARGE.
WARNING: Less than two connections to node U6:FLUX.  This node is used by E:U6:FLUX.
WARNING: Less than two connections to node U6:CHARGE.  This node is used by E:U6:CHARGE.
Direct Newton iteration for .op point succeeded.

Date: Tue Apr 25 12:45:29 2023
Total elapsed time: 0.212 seconds.

tnom = 27
temp = 27
method = modified trap
totiter = 4308
traniter = 4289
tranpoints = 1335
accept = 1263
rejected = 72
matrix size = 74
fillins = 26
solver = Normal
Thread vector: 15.0/7.2[2] 3.4/3.2[1] 3.5/2.5[2] 0.3/1.1[1]  2592/500
Matrix Compiler1: 3.07 KB object code size  1.0/0.6/[0.5]
Matrix Compiler2: 4.99 KB object code size  0.6/1.0/[0.5]

