Circuit: * C:\users\syed\My Documents\CMOS\cmos.asc

Limiting rise time of source v13 to 0.001
Limiting fall time of source v13 to 0.001
Limiting rise time of source v12 to 0.001
Limiting fall time of source v12 to 0.001
Limiting rise time of source v10 to 0.001
Limiting fall time of source v10 to 0.001
Limiting rise time of source v9 to 0.001
Limiting fall time of source v9 to 0.001
Limiting rise time of source v8 to 0.001
Limiting fall time of source v8 to 0.001
Limiting rise time of source v7 to 0.001
Limiting fall time of source v7 to 0.001
Limiting rise time of source v1 to 0.001
Limiting fall time of source v1 to 0.001
WARNING: Node NC_02 is floating.
WARNING: Node NC_04 is floating.
WARNING: Node NC_06 is floating.

WARNING: Less than two connections to node NC_01.  This node is used by M13.
WARNING: Less than two connections to node NC_03.  This node is used by M14.
WARNING: Less than two connections to node NC_05.  This node is used by M15.
Direct Newton iteration for .op point succeeded.

Date: Tue Apr 25 12:14:47 2023
Total elapsed time: 0.202 seconds.

tnom = 27
temp = 27
method = modified trap
totiter = 4178
traniter = 4149
tranpoints = 1401
accept = 1315
rejected = 86
matrix size = 47
fillins = 0
solver = Normal
Thread vector: 4.9/7.6[1] 6.8/3.2[3] 1.4/1.8[1] 0.2/1.2[1]  2592/500
Matrix Compiler1: 2.87 KB object code size  1.2/0.7/[0.4]
Matrix Compiler2: 4.34 KB object code size  0.6/0.9/[0.3]

